Version 4
SHEET 1 2048 680
WIRE 144 -192 144 -208
WIRE 240 -192 144 -192
WIRE 144 -176 144 -192
WIRE 1408 -176 1328 -176
WIRE 1664 -176 1488 -176
WIRE 1328 -48 1328 -176
WIRE 1360 -48 1328 -48
WIRE 1504 -48 1424 -48
WIRE 1328 48 1328 -48
WIRE 1360 48 1328 48
WIRE 320 64 144 64
WIRE 656 64 320 64
WIRE 816 64 736 64
WIRE 1504 64 1504 -48
WIRE 1504 64 1424 64
WIRE 1536 64 1504 64
WIRE 1664 64 1664 -176
WIRE 1664 64 1616 64
WIRE 1792 64 1664 64
WIRE 1968 64 1792 64
WIRE -48 80 -48 64
WIRE -48 80 -96 80
WIRE 320 80 320 64
WIRE 944 80 880 80
WIRE 992 80 944 80
WIRE 1136 80 1072 80
WIRE 1248 80 1200 80
WIRE 1360 80 1248 80
WIRE 1968 80 1968 64
WIRE -48 96 -48 80
WIRE 816 96 784 96
WIRE 1792 96 1792 64
WIRE 1248 112 1248 80
WIRE 144 160 144 64
WIRE 1792 176 1792 160
WIRE 1968 176 1968 160
WIRE 1968 176 1792 176
WIRE 784 208 784 96
WIRE 832 208 784 208
WIRE 944 208 944 80
WIRE 944 208 912 208
WIRE 1792 208 1792 176
WIRE 784 240 784 208
WIRE 144 256 144 240
WIRE 320 256 320 160
WIRE 1248 256 1248 192
WIRE 784 480 784 320
FLAG 144 256 0
FLAG 320 256 0
FLAG 848 112 V+
FLAG 848 48 V-
FLAG 784 480 0
FLAG -48 -16 V+
FLAG -48 176 V-
FLAG -96 80 0
FLAG 144 -96 0
FLAG 240 -192 Bias
FLAG 144 -288 V+
FLAG 1248 256 0
FLAG 1392 32 V+
FLAG 1392 96 V-
FLAG 1792 208 0
SYMBOL voltage 144 144 R0
WINDOW 123 24 124 Left 2
WINDOW 39 0 0 Left 0
SYMATTR Value2 AC 1
SYMATTR InstName V1
SYMATTR Value SINE(0 100m 1k)
SYMBOL res 304 64 R0
SYMATTR InstName R1
SYMATTR Value 2.2Meg
SYMBOL OpAmps\\OP07 848 144 M180
SYMATTR InstName U1
SYMBOL res 768 224 R0
SYMATTR InstName R4
SYMATTR Value 10k
SYMBOL res 928 192 R90
WINDOW 0 0 56 VBottom 2
WINDOW 3 32 56 VTop 2
SYMATTR InstName R5
SYMATTR Value 100k
SYMBOL voltage -48 -32 R0
WINDOW 123 0 0 Left 0
WINDOW 39 0 0 Left 0
SYMATTR InstName V2
SYMATTR Value 9
SYMBOL voltage -48 80 R0
WINDOW 123 0 0 Left 0
WINDOW 39 0 0 Left 0
SYMATTR InstName V3
SYMATTR Value 9
SYMBOL res 128 -304 R0
SYMATTR InstName R7
SYMATTR Value 100k
SYMBOL res 128 -192 R0
SYMATTR InstName R8
SYMATTR Value 100k
SYMBOL res 752 48 R90
WINDOW 0 0 56 VBottom 2
WINDOW 3 32 56 VTop 2
SYMATTR InstName R9
SYMATTR Value 33
SYMBOL res 1088 64 R90
WINDOW 0 0 56 VBottom 2
WINDOW 3 32 56 VTop 2
SYMATTR InstName R2
SYMATTR Value 33
SYMBOL cap 1200 64 R90
WINDOW 0 0 32 VBottom 2
WINDOW 3 32 32 VTop 2
SYMATTR InstName C1
SYMATTR Value 10µ
SYMBOL res 1232 96 R0
SYMATTR InstName R3
SYMATTR Value 10k
SYMBOL OpAmps\\OP07 1392 0 R0
SYMATTR InstName U2
SYMBOL cap 1424 -64 R90
WINDOW 0 0 32 VBottom 2
WINDOW 3 32 32 VTop 2
SYMATTR InstName C2
SYMATTR Value 470p
SYMBOL res 1504 -192 R90
WINDOW 0 0 56 VBottom 2
WINDOW 3 32 56 VTop 2
SYMATTR InstName R6
SYMATTR Value 560
SYMBOL res 1632 48 R90
WINDOW 0 0 56 VBottom 2
WINDOW 3 32 56 VTop 2
SYMATTR InstName R10
SYMATTR Value 91
SYMBOL res 1952 64 R0
SYMATTR InstName R11
SYMATTR Value 470k
SYMBOL cap 1776 96 R0
SYMATTR InstName C3
SYMATTR Value 2.7n
TEXT -120 376 Left 2 !.ac dec 1000 1 100k
